Circuit: * D:\College\4. year\Power Supplies\Project\Draft1.asc

Direct Newton iteration for .op point succeeded.

Date: Fri Dec  8 19:06:46 2023
Total elapsed time: 0.371 seconds.

tnom = 27
temp = 27
method = modified trap
totiter = 2085
traniter = 2082
tranpoints = 1042
accept = 1042
rejected = 0
matrix size = 4
fillins = 0
solver = Normal
Avg thread counts: 4.5/8.1/8.1/4.5
Matrix Compiler1: off  [0.6]/1.0/1.1
Matrix Compiler2: off  [0.5]/1.7/1.1

