Circuit: * D:\College\4. year\Power Supplies\Project\Draft3.asc

Warning: Multiple definitions of model "2scr375p" Type: BJT
Warning: Multiple definitions of model "bc857b" Type: BJT
Warning: Multiple definitions of model "bc847c" Type: BJT
Warning: Multiple definitions of model "bc847b" Type: BJT
Limiting rise time of source v4 to 1.25e-06
Limiting fall time of source v4 to 1.25e-06
Direct Newton iteration for .op point succeeded.

Date: Mon Jan  8 22:07:37 2024
Total elapsed time: 21.403 seconds.

tnom = 27
temp = 27
method = modified trap
totiter = 1111033
traniter = 1110993
tranpoints = 423547
accept = 298753
rejected = 124794
matrix size = 63
fillins = 57
solver = Normal
Avg thread counts: 1.0/3.0/1.0/1.0
Matrix Compiler1: 9.21 KB object code size  4.7/2.2/[1.0]
Matrix Compiler2: 6.51 KB object code size  1.2/2.9/[1.3]

